/*--------------------------------*- C++ -*----------------------------------*\
| =========                 |                                                 |
| \\      /  F ield         | OpenFOAM: The Open Source CFD Toolbox           |
|  \\    /   O peration     | Version:  5.0                                   |
|   \\  /    A nd           | Web:      www.OpenFOAM.org                      |
|    \\/     M anipulation  |                                                 |
\*---------------------------------------------------------------------------*/
FoamFile
{
    version     2.0;
    format      ascii;
    class       polyBoundaryMesh;
    location    "constant/polyMesh";
    object      boundary;
}
// * * * * * * * * * * * * * * * * * * * * * * * * * * * * * * * * * * * * * //

6
(
    top
    {
        type            symmetry;
        inGroups        1(symmetry);
        nFaces          50;
        startFace       2650;
    }
    bottom
    {
        type            symmetry;
        inGroups        1(symmetry);
        nFaces          50;
        startFace       2700;
    }
    rotatingWall
    {
        type            patch;
        nFaces          100;
        startFace       2750;
    }
    wall
    {
        type            wall;
        inGroups        1(wall);
        nFaces          100;
        startFace       2850;
    }
    front
    {
        type            cyclic;
        inGroups        1(cyclic);
        nFaces          200;
        startFace       2950;
        matchTolerance  0.0001;
        transform       unknown;
        neighbourPatch  back;
    }
    back
    {
        type            cyclic;
        inGroups        1(cyclic);
        nFaces          200;
        startFace       3150;
        matchTolerance  0.0001;
        transform       unknown;
        neighbourPatch  front;
    }
)

// ************************************************************************* //
