/*--------------------------------*- C++ -*----------------------------------*\
| =========                 |                                                 |
| \\      /  F ield         | OpenFOAM: The Open Source CFD Toolbox           |
|  \\    /   O peration     | Version:  5.0                                   |
|   \\  /    A nd           | Web:      www.OpenFOAM.org                      |
|    \\/     M anipulation  |                                                 |
\*---------------------------------------------------------------------------*/
FoamFile
{
    version     2.0;
    format      ascii;
    class       polyBoundaryMesh;
    location    "constant/polyMesh";
    object      boundary;
}
// * * * * * * * * * * * * * * * * * * * * * * * * * * * * * * * * * * * * * //

6
(
    top
    {
        type            wall;
        inGroups        1(wall);
        nFaces          5;
        startFace       40;
    }
    bottom
    {
        type            symmetryPlane;
        inGroups        1(symmetryPlane);
        nFaces          5;
        startFace       45;
    }
    inlet
    {
        type            patch;
        nFaces          5;
        startFace       50;
    }
    outlet
    {
        type            patch;
        nFaces          0;
        startFace       55;
    }
    frontAndBack
    {
        type            empty;
        inGroups        1(empty);
        nFaces          50;
        startFace       55;
    }
    procBoundary0to1
    {
        type            processor;
        inGroups        1(processor);
        nFaces          5;
        startFace       105;
        matchTolerance  0.0001;
        transform       unknown;
        myProcNo        0;
        neighbProcNo    1;
    }
)

// ************************************************************************* //
