/*--------------------------------*- C++ -*----------------------------------*\
| =========                 |                                                 |
| \\      /  F ield         | OpenFOAM: The Open Source CFD Toolbox           |
|  \\    /   O peration     | Version:  5.0                                   |
|   \\  /    A nd           | Web:      www.OpenFOAM.org                      |
|    \\/     M anipulation  |                                                 |
\*---------------------------------------------------------------------------*/
FoamFile
{
    version     2.0;
    format      ascii;
    class       polyBoundaryMesh;
    location    "constant/polyMesh";
    object      boundary;
}
// * * * * * * * * * * * * * * * * * * * * * * * * * * * * * * * * * * * * * //

5
(
    top
    {
        type            patch;
        nFaces          784;
        startFace       458416;
    }
    bottom
    {
        type            wall;
        inGroups        1(wall);
        nFaces          784;
        startFace       459200;
    }
    rotatingWall
    {
        type            patch;
        nFaces          5600;
        startFace       459984;
    }
    edges
    {
        type            symmetry;
        inGroups        1(symmetry);
        nFaces          11200;
        startFace       465584;
    }
    wall
    {
        type            wall;
        inGroups        1(wall);
        nFaces          5600;
        startFace       476784;
    }
)

// ************************************************************************* //
