/*--------------------------------*- C++ -*----------------------------------*\
| =========                 |                                                 |
| \\      /  F ield         | OpenFOAM: The Open Source CFD Toolbox           |
|  \\    /   O peration     | Version:  5                                     |
|   \\  /    A nd           | Web:      www.OpenFOAM.org                      |
|    \\/     M anipulation  |                                                 |
\*---------------------------------------------------------------------------*/
FoamFile
{
    version     2.0;
    format      ascii;
    class       dictionary;
    object      blockMeshDict;
}
// * * * * * * * * * * * * * * * * * * * * * * * * * * * * * * * * * * * * * //

convertToMeters 0.01;

vertices
(
    (4.1 0 0)
    (5.5 0 0)
    (5.5 2.8 0)
    (4.1 2.8 0)
    (4.1 0 0.1)
    (5.5 0 0.1)
    (5.5 2.8 0.1)
    (4.1 2.8 0.1)
);

blocks
(
    hex (0 1 2 3 4 5 6 7) (10 20 1) simpleGrading (1 1 1)
);

edges
(
);

boundary
(
    top
    {
        type symmetry;
        faces
        (
            (3 7 6 2)
        );
    }
    bottom
    {
        type symmetry;
        faces
        (
            (1 5 4 0)
        );
    }
    rotatingWall
    {
        type patch;
        faces
        (
            (0 4 7 3)
        );
    }
    wall
    {
	type wall;
	faces
	(
           (2 6 5 1)
	);
    }
    front
    {
	type cyclic;
	neighbourPatch back;
	transform rotational;
	rotationAxis (0 1 0);
        rotationCentre (0 0 0);
        matchTolerance 1E-04;
	faces
	(

	(4 5 6 7)

	);
    }
back
    {
	type cyclic;
	neighbourPatch front;
	transform rotational;
	rotationAxis (0 1 0);
        rotationCentre (0 0 0);
        matchTolerance 1E-04;
	faces
	(		
	(0 3 2 1)		
	);
    }
);

mergePatchPairs
(
);

// ************************************************************************* //
