/*--------------------------------*- C++ -*----------------------------------*\
| =========                 |                                                 |
| \\      /  F ield         | OpenFOAM: The Open Source CFD Toolbox           |
|  \\    /   O peration     | Version:  5                                     |
|   \\  /    A nd           | Web:      www.OpenFOAM.org                      |
|    \\/     M anipulation  |                                                 |
\*---------------------------------------------------------------------------*/
FoamFile
{
    version     2.0;
    format      ascii;
    class       dictionary;
    object      blockMeshDict;
}
// * * * * * * * * * * * * * * * * * * * * * * * * * * * * * * * * * * * * * //

convertToMeters 0.01;

vertices
(
    (4.1 0 0)
    (5.5 0 0)
    (5.5 4 0)
    (4.1 4 0)
    (4.1 0 1)
    (5.5 0 1)
    (5.5 4 1)
    (4.1 4 1)
);

blocks
(
    hex (0 1 2 3 4 5 6 7) (14 40 10) simpleGrading (1 1 1)
);

edges
(
);

boundary
(
    top
    {
        type patch;
        faces
        (
            (3 7 6 2)
        );
    }
    bottom
    {
        type wall;
        faces
        (
            (1 5 4 0)
        );
    }
    rotatingWall
    {
        type patch;
        faces
        (
            (0 4 7 3)
        );
    }
    wall
    {
	type wall;
	faces
	(
           (2 6 5 1)
	);
    }
    frontAndBack
    {
	type patch;
	faces
	(
	   (0 3 2 1)
	   (4 5 6 7)
	);
    }
);

mergePatchPairs
(
);

// ************************************************************************* //
