/*--------------------------------*- C++ -*----------------------------------*\
| =========                 |                                                 |
| \\      /  F ield         | OpenFOAM: The Open Source CFD Toolbox           |
|  \\    /   O peration     | Version:  5.0                                   |
|   \\  /    A nd           | Web:      www.OpenFOAM.org                      |
|    \\/     M anipulation  |                                                 |
\*---------------------------------------------------------------------------*/
FoamFile
{
    version     2.0;
    format      ascii;
    class       polyBoundaryMesh;
    location    "constant/polyMesh";
    object      boundary;
}
// * * * * * * * * * * * * * * * * * * * * * * * * * * * * * * * * * * * * * //

5
(
    top
    {
        type            wall;
        inGroups        1(wall);
        nFaces          10;
        startFace       85;
    }
    bottom
    {
        type            symmetryPlane;
        inGroups        1(symmetryPlane);
        nFaces          10;
        startFace       95;
    }
    inlet
    {
        type            patch;
        nFaces          5;
        startFace       105;
    }
    outlet
    {
        type            patch;
        nFaces          5;
        startFace       110;
    }
    frontAndBack
    {
        type            empty;
        inGroups        1(empty);
        nFaces          100;
        startFace       115;
    }
)

// ************************************************************************* //
