/*--------------------------------*- C++ -*----------------------------------*\
| =========                 |                                                 |
| \\      /  F ield         | OpenFOAM: The Open Source CFD Toolbox           |
|  \\    /   O peration     | Version:  5.0                                   |
|   \\  /    A nd           | Web:      www.OpenFOAM.org                      |
|    \\/     M anipulation  |                                                 |
\*---------------------------------------------------------------------------*/
FoamFile
{
    version     2.0;
    format      ascii;
    class       polyBoundaryMesh;
    location    "constant/polyMesh";
    object      boundary;
}
// * * * * * * * * * * * * * * * * * * * * * * * * * * * * * * * * * * * * * //

5
(
    top
    {
        type            symmetry;
        inGroups        1(symmetry);
        nFaces          3136;
        startFace       517440;
    }
    bottom
    {
        type            symmetry;
        inGroups        1(symmetry);
        nFaces          3136;
        startFace       520576;
    }
    rotatingWall
    {
        type            patch;
        nFaces          6272;
        startFace       523712;
    }
    wall
    {
        type            wall;
        inGroups        1(wall);
        nFaces          6272;
        startFace       529984;
    }
    frontAndBack
    {
        type            empty;
        inGroups        1(empty);
        nFaces          0;
        startFace       536256;
    }
)

// ************************************************************************* //
