/*--------------------------------*- C++ -*----------------------------------*\
| =========                 |                                                 |
| \\      /  F ield         | OpenFOAM: The Open Source CFD Toolbox           |
|  \\    /   O peration     | Version:  5                                     |
|   \\  /    A nd           | Web:      www.OpenFOAM.org                      |
|    \\/     M anipulation  |                                                 |
\*---------------------------------------------------------------------------*/
FoamFile
{
    version     2.0;
    format      ascii;
    class       volScalarField;
    object      ViscoDPD;
}
// * * * * * * * * * * * * * * * * * * * * * * * * * * * * * * * * * * * * * //

dimensions      [0 2 -1 0 0 0 0];

internalField   uniform 0.1;

boundaryField
{
     top
    {
        type            zeroGradient;
    }
    bottom
    {
        type            symmetryPlane;
    }
    rotatingWall
    {
	type 		zeroGradient;
    }
    wall
    {
	type 		fixedValue;
	value		uniform (0 0 0);
    }
    frontAndBack
    {
        type            empty;
    }
}
// ************************************************************************* //
