/*--------------------------------*- C++ -*----------------------------------*\
| =========                 |                                                 |
| \\      /  F ield         | OpenFOAM: The Open Source CFD Toolbox           |
|  \\    /   O peration     | Version:  5                                     |
|   \\  /    A nd           | Web:      www.OpenFOAM.org                      |
|    \\/     M anipulation  |                                                 |
\*---------------------------------------------------------------------------*/
FoamFile
{
    version     2.0;
    format      ascii;
    class       dictionary;
    object      blockMeshDict;
}
// * * * * * * * * * * * * * * * * * * * * * * * * * * * * * * * * * * * * * //

convertToMeters 0.01;

vertices
(
    (4.1 0 5)
    (5.5 0 5)
    (0 5.5 5)
    (0 4.1 5)
    (4.1 0 -5)
    (5.5 0 -5)
    (0 5.5 -5)
    (0 4.1 -5)
);

blocks
(
    hex (2 1 0 3 6 5 4 7) (28 28 200) simpleGrading (1 1 1)
);

edges
(
	arc 0 3 (2.899 2.899 5)
	arc 1 2 (3.889 3.889 5)
	arc 4 7 (2.899 2.899 -5)
	arc 5 6 (3.889 3.889 -5)
);

boundary
(
    top
    {
        type patch;
        faces
        (
            (0 1 2 3)
        );
    }
    bottom
    {
        type wall;
        faces
        (
            (4 7 6 5)
        );
    }
    rotatingWall
    {
        type patch;
        faces
        (
            (0 3 7 4)
        );
    }
    edges
    {
	type symmetry;
	faces
	(
 	(3 2 6 7)
	(5 1 0 4)
	);
    }

    wall
    {
	type wall;
	faces
	(  
	  
           (6 2 1 5)
	);
    }
   
);

mergePatchPairs
(
);

// ************************************************************************* //
