/*--------------------------------*- C++ -*----------------------------------*\
| =========                 |                                                 |
| \\      /  F ield         | OpenFOAM: The Open Source CFD Toolbox           |
|  \\    /   O peration     | Version:  5.0                                   |
|   \\  /    A nd           | Web:      www.OpenFOAM.org                      |
|    \\/     M anipulation  |                                                 |
\*---------------------------------------------------------------------------*/
FoamFile
{
    version     2.0;
    format      ascii;
    class       polyBoundaryMesh;
    location    "constant/polyMesh";
    object      boundary;
}
// * * * * * * * * * * * * * * * * * * * * * * * * * * * * * * * * * * * * * //

6
(
    top
    {
        type            symmetry;
        inGroups        1(symmetry);
        nFaces          10;
        startFace       370;
    }
    bottom
    {
        type            symmetry;
        inGroups        1(symmetry);
        nFaces          10;
        startFace       380;
    }
    rotatingWall
    {
        type            patch;
        nFaces          20;
        startFace       390;
    }
    wall
    {
        type            wall;
        inGroups        1(wall);
        nFaces          20;
        startFace       410;
    }
    front
    {
        type            cyclic;
        inGroups        1(cyclic);
        nFaces          200;
        startFace       430;
        matchTolerance  0.0001;
        transform       rotational;
        neighbourPatch  back;
        rotationAxis    (0 1 0);
        rotationCentre  (0 0 0);
    }
    back
    {
        type            cyclic;
        inGroups        1(cyclic);
        nFaces          200;
        startFace       630;
        matchTolerance  0.0001;
        transform       rotational;
        neighbourPatch  front;
        rotationAxis    (0 1 0);
        rotationCentre  (0 0 0);
    }
)

// ************************************************************************* //
