/*--------------------------------*- C++ -*----------------------------------*\
| =========                 |                                                 |
| \\      /  F ield         | OpenFOAM: The Open Source CFD Toolbox           |
|  \\    /   O peration     | Version:  5.0                                   |
|   \\  /    A nd           | Web:      www.OpenFOAM.org                      |
|    \\/     M anipulation  |                                                 |
\*---------------------------------------------------------------------------*/
FoamFile
{
    version     2.0;
    format      ascii;
    class       polyBoundaryMesh;
    location    "constant/polyMesh";
    object      boundary;
}
// * * * * * * * * * * * * * * * * * * * * * * * * * * * * * * * * * * * * * //

5
(
    top
    {
        type            patch;
        nFaces          140;
        startFace       19660;
    }
    bottom
    {
        type            wall;
        inGroups        1(wall);
        nFaces          140;
        startFace       19800;
    }
    rotatingWall
    {
        type            patch;
        nFaces          500;
        startFace       19940;
    }
    wall
    {
        type            wall;
        inGroups        1(wall);
        nFaces          500;
        startFace       20440;
    }
    frontAndBack
    {
        type            patch;
        nFaces          1400;
        startFace       20940;
    }
)

// ************************************************************************* //
